
#======================================================================
# CRYSTAL DATA
#----------------------------------------------------------------------
data_VESTA_phase_1

_chemical_name_common                  'Yttrium iron (1/3)'
_cell_length_a                         5.088172
_cell_length_b                         5.088172
_cell_length_c                         24.355398
_cell_angle_alpha                      90.000000
_cell_angle_beta                       90.000000
_cell_angle_gamma                      120.000000
_cell_volume                           546.071496
_space_group_name_H-M_alt              'P 1'
_space_group_IT_number                 1

loop_
_space_group_symop_operation_xyz
   'x, y, z'

loop_
   _atom_site_label
   _atom_site_occupancy
   _atom_site_fract_x
   _atom_site_fract_y
   _atom_site_fract_z
   _atom_site_adp_type
   _atom_site_U_iso_or_equiv
   _atom_site_type_symbol
   Fe1        1.0     0.000000     0.000000     0.500000    Uiso  ? Fe
   Fe2        1.0     0.666667     0.333333     0.833333    Uiso  ? Fe
   Fe3        1.0     0.333333     0.666667     0.166667    Uiso  ? Fe
   Fe4        1.0     0.499255     0.500745     0.080878    Uiso  ? Fe
   Fe5        1.0     0.500745     0.499255     0.919122    Uiso  ? Fe
   Fe6        1.0     0.499255     0.998510     0.080878    Uiso  ? Fe
   Fe7        1.0     0.500745     0.001490     0.919122    Uiso  ? Fe
   Fe8        1.0     0.001490     0.500745     0.080878    Uiso  ? Fe
   Fe9        1.0     0.998510     0.499255     0.919122    Uiso  ? Fe
   Fe10       1.0     0.165922     0.834078     0.414211    Uiso  ? Fe
   Fe11       1.0     0.167412     0.832588     0.252456    Uiso  ? Fe
   Fe12       1.0     0.165922     0.331844     0.414211    Uiso  ? Fe
   Fe13       1.0     0.167412     0.334823     0.252456    Uiso  ? Fe
   Fe14       1.0     0.668156     0.834078     0.414211    Uiso  ? Fe
   Fe15       1.0     0.665177     0.832588     0.252456    Uiso  ? Fe
   Fe16       1.0     0.832588     0.167412     0.747544    Uiso  ? Fe
   Fe17       1.0     0.834078     0.165922     0.585789    Uiso  ? Fe
   Fe18       1.0     0.832588     0.665177     0.747544    Uiso  ? Fe
   Fe19       1.0     0.834078     0.668156     0.585789    Uiso  ? Fe
   Fe20       1.0     0.334823     0.167412     0.747544    Uiso  ? Fe
   Fe21       1.0     0.331844     0.165922     0.585789    Uiso  ? Fe
   Fe1        1.0     0.000000     0.000000     0.332639    Uiso  ? Fe
   Fe2        1.0     0.000000     0.000000     0.667361    Uiso  ? Fe
   Fe3        1.0     0.666667     0.333333     0.665972    Uiso  ? Fe
   Fe4        1.0     0.666667     0.333333     0.000695    Uiso  ? Fe
   Fe5        1.0     0.333333     0.666667     0.999305    Uiso  ? Fe
   Fe6        1.0     0.333333     0.666667     0.334028    Uiso  ? Fe
   Y1         1.0     0.000000     0.000000     0.000000    Uiso  ? Y
   Y2         1.0     0.666667     0.333333     0.333333    Uiso  ? Y
   Y3         1.0     0.333333     0.666667     0.666667    Uiso  ? Y
   Y4         1.0     0.000000     0.000000     0.141833    Uiso  ? Y
   Y5         1.0     0.000000     0.000000     0.858167    Uiso  ? Y
   Y6         1.0     0.666667     0.333333     0.475167    Uiso  ? Y
   Y7         1.0     0.666667     0.333333     0.191500    Uiso  ? Y
   Y8         1.0     0.333333     0.666667     0.808500    Uiso  ? Y
   Y9         1.0     0.333333     0.666667     0.524833    Uiso  ? Y

