
#======================================================================
# CRYSTAL DATA
#----------------------------------------------------------------------
data_VESTA_phase_1

_chemical_name_common                  'Iron nitride (16/2) - alpha"'
_cell_length_a                         5.680315
_cell_length_b                         5.680315
_cell_length_c                         6.225600
_cell_angle_alpha                      90.000000
_cell_angle_beta                       90.000000
_cell_angle_gamma                      90.000000
_cell_volume                           200.875103
_space_group_name_H-M_alt              'P 1'
_space_group_IT_number                 1

loop_
_space_group_symop_operation_xyz
   'x, y, z'

loop_
   _atom_site_label
   _atom_site_occupancy
   _atom_site_fract_x
   _atom_site_fract_y
   _atom_site_fract_z
   _atom_site_adp_type
   _atom_site_U_iso_or_equiv
   _atom_site_type_symbol
   Fe1        1.0     0.000000     0.000000     0.294440    Uiso  ? Fe
   Fe2        1.0     0.000000     0.000000     0.705560    Uiso  ? Fe
   Fe3        1.0     0.500000     0.500000     0.794440    Uiso  ? Fe
   Fe4        1.0     0.500000     0.500000     0.205560    Uiso  ? Fe
   Fe5        1.0     0.243179     0.243179     0.000000    Uiso  ? Fe
   Fe6        1.0     0.756821     0.756821     0.000000    Uiso  ? Fe
   Fe7        1.0     0.756821     0.243179     0.000000    Uiso  ? Fe
   Fe8        1.0     0.243179     0.756821     0.000000    Uiso  ? Fe
   Fe9        1.0     0.743179     0.743179     0.500000    Uiso  ? Fe
   Fe10       1.0     0.256821     0.256821     0.500000    Uiso  ? Fe
   Fe11       1.0     0.256821     0.743179     0.500000    Uiso  ? Fe
   Fe12       1.0     0.743179     0.256821     0.500000    Uiso  ? Fe
   Fe13       1.0     0.000000     0.500000     0.250000    Uiso  ? Fe
   Fe14       1.0     0.000000     0.500000     0.750000    Uiso  ? Fe
   Fe15       1.0     0.500000     0.000000     0.250000    Uiso  ? Fe
   Fe16       1.0     0.500000     0.000000     0.750000    Uiso  ? Fe
   N1         1.0     0.000000     0.000000     0.000000    Uiso  ? N
   N2         1.0     0.500000     0.500000     0.500000    Uiso  ? N