
#======================================================================
# CRYSTAL DATA
#----------------------------------------------------------------------
data_VESTA_phase_1

_chemical_name_common                  'Yttrium iron (1/3)'
_cell_length_a                         5.227483
_cell_length_b                         5.227483
_cell_length_c                         25.022642
_cell_angle_alpha                      90.000000
_cell_angle_beta                       90.000000
_cell_angle_gamma                      120.000000
_cell_volume                           592.173679
_space_group_name_H-M_alt              'P 1'
_space_group_IT_number                 1

loop_
_space_group_symop_operation_xyz
   'x, y, z'

loop_
   _atom_site_label
   _atom_site_occupancy
   _atom_site_fract_x
   _atom_site_fract_y
   _atom_site_fract_z
   _atom_site_adp_type
   _atom_site_U_iso_or_equiv
   _atom_site_type_symbol
   Y1         1.0     0.000000     -0.000000     -0.000000    Uiso  ? Y
   Y2         1.0     0.666667     0.333333     0.333333    Uiso  ? Y
   Y3         1.0     0.333333     0.666667     0.666667    Uiso  ? Y
   Y4         1.0     0.000000     -0.000000     0.141619    Uiso  ? Y
   Y5         1.0     0.000000     -0.000000     0.858381    Uiso  ? Y
   Y6         1.0     0.666667     0.333333     0.474953    Uiso  ? Y
   Y7         1.0     0.666667     0.333333     0.191714    Uiso  ? Y
   Y8         1.0     0.333333     0.666667     0.808286    Uiso  ? Y
   Y9         1.0     0.333333     0.666667     0.525047    Uiso  ? Y
   Fe1        1.0     0.000000     -0.000000     0.500000    Uiso  ? Fe
   Fe2        1.0     0.666667     0.333333     0.833333    Uiso  ? Fe
   Fe3        1.0     0.333333     0.666667     0.166667    Uiso  ? Fe
   Fe4        1.0     0.498510     0.501490     0.084873    Uiso  ? Fe
   Fe5        1.0     0.501490     0.498510     0.915127    Uiso  ? Fe
   Fe6        1.0     0.498510    -0.002980     0.084873    Uiso  ? Fe
   Fe7        1.0     0.501490     0.002980     0.915127    Uiso  ? Fe
   Fe8        1.0     0.002980     0.501490     0.084873    Uiso  ? Fe
   Fe9        1.0    -0.002980     0.498510     0.915127    Uiso  ? Fe
   Fe10       1.0     0.165177     0.834823     0.418206    Uiso  ? Fe
   Fe11       1.0     0.168157     0.831843     0.248460    Uiso  ? Fe
   Fe12       1.0     0.165177     0.330353     0.418206    Uiso  ? Fe
   Fe13       1.0     0.168157     0.336314     0.248460    Uiso  ? Fe
   Fe14       1.0     0.669647     0.834823     0.418206    Uiso  ? Fe
   Fe15       1.0     0.663686     0.831843     0.248460    Uiso  ? Fe
   Fe16       1.0     0.831843     0.168157     0.751540    Uiso  ? Fe
   Fe17       1.0     0.834823     0.165177     0.581794    Uiso  ? Fe
   Fe18       1.0     0.831843     0.663686     0.751540    Uiso  ? Fe
   Fe19       1.0     0.834823     0.669647     0.581794    Uiso  ? Fe
   Fe20       1.0     0.336314     0.168157     0.751540    Uiso  ? Fe
   Fe21       1.0     0.330353     0.165177     0.581794    Uiso  ? Fe
   Ta1        1.0     0.000000     -0.000000     0.332783    Uiso  ? Ta
   Ta2        1.0     0.000000     -0.000000     0.667217    Uiso  ? Ta
   Ta3        1.0     0.666667     0.333333     0.666116    Uiso  ? Ta
   Ta4        1.0     0.666667     0.333333     0.000550    Uiso  ? Ta
   Ta5        1.0     0.333333     0.666667    -0.000550    Uiso  ? Ta
   Ta6        1.0     0.333333     0.666667     0.333884    Uiso  ? Ta

